<configuration>
    <input>
       <net-file value="map.net.xml"/>
       <route-files value="routes.rou.xml"/>
       <!--additional-files value="map.poly.xml"/-->
    </input>
</configuration>
