<nodes>   
    <node id="west" x="0.0" y="25.0" />
    <node id="east" x="1000.0" y="25.0" />
    <node id="north" x="500.0" y="-525.0" />
    <node id="south" x="500.0" y="525.0" />
    <node id="mid" x="500.0" y="25.0" type="traffic_light"/>
</nodes>
