<?xml version="1.0" encoding="UTF-8"?>

<!-- generated on Mon Sep 21 16:53:35 2020 by Eclipse SUMO netconvert Version v1_7_0+0155-75ad7bd236
<configuration xmlns:xsi="http://www.w3.org/2001/XMLSchema-instance" xsi:noNamespaceSchemaLocation="http://sumo.dlr.de/xsd/netconvertConfiguration.xsd">

    <input>
        <node-files value="nodes.nod.xml"/>
        <edge-files value="edges.edg.xml"/>
    </input>

    <output>
        <output-file value="map.net.xml"/>
    </output>

    <report>
        <aggregate-warnings value="5"/>
    </report>

</configuration>
-->

<net version="1.6" junctionCornerDetail="5" limitTurnSpeed="5.50" xmlns:xsi="http://www.w3.org/2001/XMLSchema-instance" xsi:noNamespaceSchemaLocation="http://sumo.dlr.de/xsd/net_file.xsd">

    <location netOffset="0.00,-25.00" convBoundary="0.00,0.00,1000.00,0.00" origBoundary="0.00,25.00,1000.00,25.00" projParameter="!"/>

    <edge id=":mid_0" function="internal">
        <lane id=":mid_0_0" index="0" speed="13.89" length="0.10" shape="500.00,-4.80 500.00,-4.80"/>
        <lane id=":mid_0_1" index="1" speed="13.89" length="0.10" shape="500.00,-1.60 500.00,-1.60"/>
    </edge>

    <edge id="eastbound1" from="west" to="mid" priority="-1">
        <lane id="eastbound1_0" index="0" speed="13.89" length="500.00" shape="0.00,-4.80 500.00,-4.80"/>
        <lane id="eastbound1_1" index="1" speed="13.89" length="500.00" shape="0.00,-1.60 500.00,-1.60"/>
    </edge>
    <edge id="eastbound2" from="mid" to="east" priority="-1">
        <lane id="eastbound2_0" index="0" speed="13.89" length="500.00" shape="500.00,-4.80 1000.00,-4.80"/>
        <lane id="eastbound2_1" index="1" speed="13.89" length="500.00" shape="500.00,-1.60 1000.00,-1.60"/>
    </edge>

    <junction id="east" type="dead_end" x="1000.00" y="0.00" incLanes="eastbound2_0 eastbound2_1" intLanes="" shape="1000.00,-6.40 1000.00,0.00"/>
    <junction id="mid" type="priority" x="500.00" y="0.00" incLanes="eastbound1_0 eastbound1_1" intLanes=":mid_0_0 :mid_0_1" shape="500.00,0.00 500.00,-6.40 500.00,0.00">
        <request index="0" response="00" foes="00" cont="0"/>
        <request index="1" response="00" foes="00" cont="0"/>
    </junction>
    <junction id="west" type="dead_end" x="0.00" y="0.00" incLanes="" intLanes="" shape="0.00,0.00 0.00,-6.40"/>

    <connection from="eastbound1" to="eastbound2" fromLane="0" toLane="0" via=":mid_0_0" dir="s" state="M"/>
    <connection from="eastbound1" to="eastbound2" fromLane="1" toLane="1" via=":mid_0_1" dir="s" state="M"/>

    <connection from=":mid_0" to="eastbound2" fromLane="0" toLane="0" dir="s" state="M"/>
    <connection from=":mid_0" to="eastbound2" fromLane="1" toLane="1" dir="s" state="M"/>

</net>
